@<TRIPOS>MOLECULE
MOL
   79    84     1     0     0
SMALL
resp


@<TRIPOS>ATOM
      1 C1           1.3680    -4.6750    -1.4870 c3         1 MOL      -0.311254
      2 C2           2.4750    -3.6860    -1.1910 ca         1 MOL       0.176226
      3 C3           3.7830    -3.9810    -1.5450 ca         1 MOL      -0.293500
      4 C4           4.8450    -3.1300    -1.2840 ca         1 MOL      -0.267779
      5 C5           4.6010    -1.9320    -0.6330 ca         1 MOL       0.364891
      6 N1           5.5960    -0.9760    -0.3350 n          1 MOL      -0.664803
      7 C6           6.9470    -1.1300    -0.3630 c          1 MOL       0.825428
      8 C7           7.7380     0.0940     0.0120 ca         1 MOL      -0.144122
      9 C8           7.2940     1.3850    -0.2190 ca         1 MOL      -0.155435
     10 C9           8.0870     2.4690     0.1320 ca         1 MOL      -0.058167
     11 C10          7.5610     3.8550    -0.1150 c3         1 MOL       0.663213
     12 F1           6.5680     4.1530     0.7130 f          1 MOL      -0.226048
     13 F2           8.4910     4.7800     0.0440 f          1 MOL      -0.226048
     14 F3           7.0790     3.9820    -1.3420 f          1 MOL      -0.226048
     15 C11          9.3240     2.2680     0.7160 ca         1 MOL      -0.102920
     16 C12          9.7770     0.9750     0.9370 ca         1 MOL      -0.157831
     17 C13          8.9950    -0.1040     0.5780 ca         1 MOL      -0.083950
     18 O1           7.5040    -2.1530    -0.6450 o          1 MOL      -0.656671
     19 C14          3.2960    -1.6190    -0.2690 ca         1 MOL      -0.355097
     20 C15          2.2360    -2.4700    -0.5390 cp         1 MOL      -0.053453
     21 C16          0.8620    -2.0560    -0.1130 cp         1 MOL       0.202177
     22 C17          0.5290    -1.9510     1.2030 ca         1 MOL      -0.265695
     23 C18         -0.7710    -1.5370     1.5730 ca         1 MOL      -0.260385
     24 C19         -1.2030    -1.4090     2.9180 ca         1 MOL       0.484873
     25 N2          -2.3880    -1.0330     3.2490 nb         1 MOL      -0.858609
     26 C20         -3.2490    -0.7510     2.2270 ca         1 MOL       1.100308
     27 N3          -4.4690    -0.3660     2.6880 nh         1 MOL      -0.761047
     28 C21         -5.6530     0.0020     2.0360 ca         1 MOL       0.388473
     29 C22         -6.7450     0.2980     2.8440 ca         1 MOL      -0.311733
     30 C23         -7.9430     0.6740     2.2740 ca         1 MOL      -0.255981
     31 C24         -8.1130     0.7690     0.8970 ca         1 MOL       0.084434
     32 C25         -9.4700     1.1700     0.3550 c3         1 MOL      -0.232472
     33 C26         -9.4990     2.3710    -0.5920 c3         1 MOL      -0.057056
     34 N4          -9.0220     2.0810    -1.9320 n3         1 MOL      -0.245606
     35 C27         -7.5890     1.8620    -2.0130 c3         1 MOL      -0.217352
     36 C28         -7.0720     0.5350    -1.4380 c3         1 MOL       0.202183
     37 C29         -7.0160     0.4760     0.0850 ca         1 MOL       0.039292
     38 C30         -5.8040     0.1000     0.6580 ca         1 MOL      -0.414119
     39 C31         -7.7810    -0.6820    -2.0500 c3         1 MOL      -0.249620
     40 C32         -9.4430     3.1060    -2.8660 c3         1 MOL      -0.249159
     41 N5          -2.9790    -0.8270     0.9610 nb         1 MOL      -0.705601
     42 C33         -1.7330    -1.2240     0.6100 ca         1 MOL       0.357153
     43 C34         -1.3870    -1.3250    -0.7700 ca         1 MOL       0.088523
     44 C35         -2.4050    -0.9790    -1.8260 c3         1 MOL      -0.300019
     45 C36         -0.1250    -1.7310    -1.0860 ca         1 MOL      -0.338120
     46 H1           1.7850    -5.6340    -1.7730 hc         1 MOL       0.094272
     47 H2           0.7320    -4.8310    -0.6230 hc         1 MOL       0.094272
     48 H3           0.7310    -4.3410    -2.2990 hc         1 MOL       0.094272
     49 H4           3.9910    -4.9140    -2.0390 ha         1 MOL       0.190075
     50 H5           5.8380    -3.4030    -1.5710 ha         1 MOL       0.210733
     51 H6           5.2550    -0.1360     0.0710 hn         1 MOL       0.375552
     52 H7           6.3520     1.5640    -0.7030 ha         1 MOL       0.157753
     53 H8           9.9350     3.1070     0.9870 ha         1 MOL       0.163572
     54 H9          10.7420     0.8160     1.3810 ha         1 MOL       0.163402
     55 H10          9.3430    -1.1080     0.7270 ha         1 MOL       0.152542
     56 H11          3.0940    -0.6860     0.2300 ha         1 MOL       0.191685
     57 H12          1.2450    -2.1900     1.9700 ha         1 MOL       0.176897
     58 H13         -0.5210    -1.6330     3.7230 h4         1 MOL       0.091394
     59 H14         -4.5110    -0.3680     3.6820 hn         1 MOL       0.385012
     60 H15         -6.6580     0.2360     3.9150 ha         1 MOL       0.192543
     61 H16         -8.7720     0.8980     2.9220 ha         1 MOL       0.183277
     62 H17        -10.1050     1.4140     1.2010 hc         1 MOL       0.103553
     63 H18         -9.9460     0.3340    -0.1490 hc         1 MOL       0.103553
     64 H19         -8.9530     3.2070    -0.1430 h1         1 MOL       0.084953
     65 H20        -10.5340     2.6830    -0.6810 h1         1 MOL       0.084953
     66 H21         -7.0360     2.6870    -1.5530 h1         1 MOL       0.105733
     67 H22         -7.3280     1.8630    -3.0660 h1         1 MOL       0.105733
     68 H23         -6.0390     0.4890    -1.7700 hc         1 MOL       0.019378
     69 H24         -4.9700    -0.1200     0.0290 ha         1 MOL       0.189052
     70 H25         -7.3120    -1.6000    -1.7120 hc         1 MOL       0.063162
     71 H26         -8.8290    -0.7190    -1.7880 hc         1 MOL       0.063162
     72 H27         -7.7160    -0.6490    -3.1340 hc         1 MOL       0.063162
     73 H28         -9.1540     2.8290    -3.8730 h1         1 MOL       0.106041
     74 H29        -10.5230     3.2010    -2.8460 h1         1 MOL       0.106041
     75 H30         -9.0140     4.0890    -2.6490 h1         1 MOL       0.106041
     76 H31         -3.2850    -1.6070    -1.7370 hc         1 MOL       0.099299
     77 H32         -2.7340     0.0500    -1.7260 hc         1 MOL       0.099299
     78 H33         -1.9890    -1.1100    -2.8180 hc         1 MOL       0.099299
     79 H34          0.1520    -1.8010    -2.1240 ha         1 MOL       0.208861
@<TRIPOS>BOND
     1     1     2 1   
     2     1    46 1   
     3     1    47 1   
     4     1    48 1   
     5     2     3 ar  
     6     2    20 ar  
     7     3     4 ar  
     8     3    49 1   
     9     4     5 ar  
    10     4    50 1   
    11     5     6 1   
    12     5    19 ar  
    13     6     7 1   
    14     6    51 1   
    15     7     8 1   
    16     7    18 2   
    17     8     9 ar  
    18     8    17 ar  
    19     9    10 ar  
    20     9    52 1   
    21    10    11 1   
    22    10    15 ar  
    23    11    12 1   
    24    11    13 1   
    25    11    14 1   
    26    15    16 ar  
    27    15    53 1   
    28    16    17 ar  
    29    16    54 1   
    30    17    55 1   
    31    19    20 ar  
    32    19    56 1   
    33    20    21 1   
    34    21    22 ar  
    35    21    45 ar  
    36    22    23 ar  
    37    22    57 1   
    38    23    24 ar  
    39    23    42 ar  
    40    24    25 ar  
    41    24    58 1   
    42    25    26 ar  
    43    26    27 1   
    44    26    41 ar  
    45    27    28 1   
    46    27    59 1   
    47    28    29 ar  
    48    28    38 ar  
    49    29    30 ar  
    50    29    60 1   
    51    30    31 ar  
    52    30    61 1   
    53    31    32 1   
    54    31    37 ar  
    55    32    33 1   
    56    32    62 1   
    57    32    63 1   
    58    33    34 1   
    59    33    64 1   
    60    33    65 1   
    61    34    35 1   
    62    34    40 1   
    63    35    36 1   
    64    35    66 1   
    65    35    67 1   
    66    36    37 1   
    67    36    39 1   
    68    36    68 1   
    69    37    38 ar  
    70    38    69 1   
    71    39    70 1   
    72    39    71 1   
    73    39    72 1   
    74    40    73 1   
    75    40    74 1   
    76    40    75 1   
    77    41    42 ar  
    78    42    43 ar  
    79    43    44 1   
    80    43    45 ar  
    81    44    76 1   
    82    44    77 1   
    83    44    78 1   
    84    45    79 1   
@<TRIPOS>SUBSTRUCTURE
     1 MOL         1 TEMP              0 ****  ****    0 ROOT
